6
Ethylene in au
C  -0.48754934255168E+01 0.12850137710665E+00 0.00000000000000E+00
H  -0.38682693961368E+01 -0.16232747490384E+01 0.00000000000000E+00
H  -0.68975003888126E+01 0.12850137710665E+00 0.00000000000000E+00
C  -0.35999282851200E+01 0.23489295844641E+01 0.00000000000000E+00
H  -0.46071523145000E+01 0.41025954367430E+01 0.00000000000000E+00
H  -0.15779213218243E+01 0.23489295844641E+01 0.00000000000000E+00