6

         C      6.032500      5.782000      6.370000 
         H      6.565500      4.855000      6.370000 
         H      4.962500      5.782000      6.370000 
         C      6.707500      6.957000      6.370000 
         H      6.174500      7.885000      6.370000 
         H      7.777500      6.957000      6.370000 
